Circuit: * C:\Users\User\Documents\ENPH354\DCOffsett.asc

Direct Newton iteration for .op point succeeded.

Date: Wed Mar 01 10:18:08 2023
Total elapsed time: 0.069 seconds.

tnom = 27
temp = 27
method = modified trap
totiter = 4550
traniter = 4528
tranpoints = 1677
accept = 1373
rejected = 304
matrix size = 40
fillins = 20
solver = Normal
Matrix Compiler1: 2.64 KB object code size  0.5/0.2/[0.1]
Matrix Compiler2:     283 opcodes  0.4/[0.3]/0.4

