Circuit: * D:\Documents\3rd year\ENPH 354\ENPH354\353PWMsimulation.asc

.OP point found by inspection.

Date: Sat Mar 04 20:06:59 2023
Total elapsed time: 1.211 seconds.

tnom = 27
temp = 27
method = modified trap
totiter = 1048062
traniter = 1048062
tranpoints = 524032
accept = 410786
rejected = 113246
matrix size = 3
fillins = 0
solver = Normal
Matrix Compiler1:       3 opcodes  0.0/[0.0]/0.0
Matrix Compiler2: off  [0.0]/0.0/0.0

