Circuit: * D:\Documents\3rd year\ENPH 354\ENPH354\DCOffsett.asc

Direct Newton iteration for .op point succeeded.

Date: Sat Mar 04 20:16:47 2023
Total elapsed time: 6.408 seconds.

tnom = 27
temp = 27
method = modified trap
totiter = 1005041
traniter = 1005030
tranpoints = 502516
accept = 405016
rejected = 97500
matrix size = 73
fillins = 78
solver = Normal
Matrix Compiler1: 7.16 KB object code size  1.6/0.7/[0.5]
Matrix Compiler2: 7.32 KB object code size  0.6/0.8/[0.6]

